
**** 10/09/25 10:49:29 ****** PSpice 17.2.0 (March 2016) ****** ID# 0 ********

 ** Profile: "SCHEMATIC1-Prueba"  [ C:\Users\Ronal\Downloads\Proyecto Diseño\Simulaciones\Sensado\prueba_project-pspicefiles\schemati


 ****     CIRCUIT DESCRIPTION


******************************************************************************




** Creating circuit file "Prueba.cir" 
** WARNING: THIS AUTOMATICALLY GENERATED FILE MAY BE OVERWRITTEN BY SUBSEQUENT SIMULATIONS

*Libraries: 
* Profile Libraries :
* Local Libraries :
.LIB "C:/Users/Ronal/Downloads/OPAx333.LIB" 
.LIB "C:/Users/Ronal/Downloads/INA333.LIB" 
* From [PSPICE NETLIST] section of D:\Cadence\Cadence\SPB_Data\cdssetup\OrCAD_PSpice\17.2.0\PSpice.ini file:
.lib "nom.lib" 

*Analysis directives: 
.TRAN  0 50m 0 10u 
.OPTIONS ADVCONV
.PROBE64 V(alias(*)) I(alias(*)) W(alias(*)) D(alias(*)) NOISE(alias(*)) 
.INC "..\SCHEMATIC1.net" 



**** INCLUDING SCHEMATIC1.net ****
* source PRUEBA_PROJECT
R_R1         N14420 N14416  7.1k TC=0,0 
R_R2         0 N14454  5m TC=0,0 
V_V1         VCC 0 DC 3.3  
V_V2         0 VEE DC 3.3  
R_R3         N16620 N16616  330k TC=0,0 
R_R4         N16624 N16620  330k TC=0,0 
R_R5         N16628 N16624  330k TC=0,0 
R_R6         0 N16628  5.87k TC=0,0 
R_R9         N14454 N16616  12 TC=0,0 
V_V5         N16616 0  
+SIN 0 170 60 0 0 0
R_R11         AIN0N N21353  1k TC=0,0 
R_R10         AIN0P N21387  1k TC=0,0 
C_C5         AIN0N AIN0P  10nF  TC=0,0 
X_U3         N14454 0 VCC VEE N21387 N21353 N14416 N14420 INA333
X_U4         N31339 N21353 VCC VEE N21353 OPAX333
R_R12         VCC N31339  10k TC=0,0 
R_R13         N31339 0  10k TC=0,0 
X_U5         N35257 N34756 VCC VEE N34738 OPAX333
R_R19         N35257 N47022  10k TC=0,0 
R_R20         N35257 N21353  10k TC=0,0 
R_R21         N34756 0  10k TC=0,0 
R_R22         N34738 N34756  10k TC=0,0 
R_R24         AIN1N N21353  1k TC=0,0 
R_R23         AIN1P N34738  1k TC=0,0 
C_C6         AIN1N AIN1P  10nF  TC=0,0 
X_U7         N16628 N47022 VCC VEE N47022 OPAX333

**** RESUMING Prueba.cir ****
.END

**** 10/09/25 10:49:29 ****** PSpice 17.2.0 (March 2016) ****** ID# 0 ********

 ** Profile: "SCHEMATIC1-Prueba"  [ C:\Users\Ronal\Downloads\Proyecto Diseño\Simulaciones\Sensado\prueba_project-pspicefiles\schemati


 ****     Resistor MODEL PARAMETERS


******************************************************************************




               X_U3.R_NOISELESS 
  T_Measured   27            
   T_Current -273.15         
           R    1            


               X_U4.R_NOISELESS 
  T_Measured   27            
   T_Current -273.15         
           R    1            


               X_U5.R_NOISELESS 
  T_Measured   27            
   T_Current -273.15         
           R    1            


               X_U7.R_NOISELESS 
  T_Measured   27            
   T_Current -273.15         
           R    1            


               X_U3.XA1.R_NOISELESS 
  T_Measured   27            
   T_Current -273.15         
           R    1            


               X_U3.XA2.R_NOISELESS 
  T_Measured   27            
   T_Current -273.15         
           R    1            


               X_U3.XA3.R_NOISELESS 
  T_Measured   27            
   T_Current -273.15         
           R    1            


               X_U3.XA1.XU1.R_NOISELESS 
  T_Measured   27            
   T_Current -273.15         
           R    1            


               X_U3.XA1.XU2.R_NOISELESS 
  T_Measured   27            
   T_Current -273.15         
           R    1            


               X_U3.XA1.XU3.R_NOISELESS 
  T_Measured   27            
   T_Current -273.15         
           R    1            


               X_U3.XA2.XU1.R_NOISELESS 
  T_Measured   27            
   T_Current -273.15         
           R    1            


               X_U3.XA2.XU2.R_NOISELESS 
  T_Measured   27            
   T_Current -273.15         
           R    1            


               X_U3.XA2.XU3.R_NOISELESS 
  T_Measured   27            
   T_Current -273.15         
           R    1            


               X_U3.XA3.XU1.R_NOISELESS 
  T_Measured   27            
   T_Current -273.15         
           R    1            


               X_U3.XA3.XU2.R_NOISELESS 
  T_Measured   27            
   T_Current -273.15         
           R    1            


               X_U3.XA3.XU3.R_NOISELESS 
  T_Measured   27            
   T_Current -273.15         
           R    1            


**** 10/09/25 10:49:29 ****** PSpice 17.2.0 (March 2016) ****** ID# 0 ********

 ** Profile: "SCHEMATIC1-Prueba"  [ C:\Users\Ronal\Downloads\Proyecto Diseño\Simulaciones\Sensado\prueba_project-pspicefiles\schemati


 ****     Voltage Controlled Switch MODEL PARAMETERS


******************************************************************************




               X_U3.XA1.S_VSWITCH_1 
         RON    1.000000E-03 
        ROFF    1.000000E+09 
         VON     .9          
        VOFF     .8          


               X_U3.XA2.S_VSWITCH_1 
         RON    1.000000E-03 
        ROFF    1.000000E+09 
         VON     .9          
        VOFF     .8          


               X_U3.XA3.S_VSWITCH_1 
         RON   50            
        ROFF    1.000000E+12 
         VON     .5          
        VOFF     .45         


               X_U3.XA3.S_VSWITCH_2 
         RON    1.000000E-03 
        ROFF    1.000000E+09 
         VON     .9          
        VOFF     .8          


               X_U3.XA3.S_VSWITCH_3            X_U4.X_S1._S1   X_U4.X_S2._S2   
         RON     .01                             .01             .01         
        ROFF    1.000000E+09                    1.000000E+09    1.000000E+09 
         VON     .01                             .01             .01         
        VOFF    0                               0               0            


               X_U4.X_U20.ESD_SW 
         RON   50            
        ROFF    1.000000E+12 
         VON     .7          
        VOFF     .65         


               X_U4.X_U21.ESD_SW 
         RON   50            
        ROFF    1.000000E+12 
         VON     .5          
        VOFF     .45         


               X_U4.X_U25.OL_SW 
         RON    1.000000E-03 
        ROFF    1.000000E+09 
         VON     .9          
        VOFF     .8          


               X_U4.X_U5.ESD_SW                X_U5.X_S1._S1   X_U5.X_S2._S2   
         RON   50                                .01             .01         
        ROFF    1.000000E+12                    1.000000E+09    1.000000E+09 
         VON     .5                              .01             .01         
        VOFF     .45                            0               0            


               X_U5.X_U20.ESD_SW 
         RON   50            
        ROFF    1.000000E+12 
         VON     .7          
        VOFF     .65         


               X_U5.X_U21.ESD_SW 
         RON   50            
        ROFF    1.000000E+12 
         VON     .5          
        VOFF     .45         


               X_U5.X_U25.OL_SW 
         RON    1.000000E-03 
        ROFF    1.000000E+09 
         VON     .9          
        VOFF     .8          


               X_U5.X_U5.ESD_SW                X_U7.X_S1._S1   X_U7.X_S2._S2   
         RON   50                                .01             .01         
        ROFF    1.000000E+12                    1.000000E+09    1.000000E+09 
         VON     .5                              .01             .01         
        VOFF     .45                            0               0            


               X_U7.X_U20.ESD_SW 
         RON   50            
        ROFF    1.000000E+12 
         VON     .7          
        VOFF     .65         


               X_U7.X_U21.ESD_SW 
         RON   50            
        ROFF    1.000000E+12 
         VON     .5          
        VOFF     .45         


               X_U7.X_U25.OL_SW 
         RON    1.000000E-03 
        ROFF    1.000000E+09 
         VON     .9          
        VOFF     .8          


               X_U7.X_U5.ESD_SW 
         RON   50            
        ROFF    1.000000E+12 
         VON     .5          
        VOFF     .45         


               X_U3.XA1.XU5.S_VSWITCH_1 
         RON   50            
        ROFF    1.000000E+12 
         VON     .7          
        VOFF     .6          


               X_U3.XA1.XU5.S_VSWITCH_2 
         RON   50            
        ROFF    1.000000E+12 
         VON     .5          
        VOFF     .45         


               X_U3.XA2.XU5.S_VSWITCH_1 
         RON   50            
        ROFF    1.000000E+12 
         VON     .7          
        VOFF     .6          


               X_U3.XA2.XU5.S_VSWITCH_2 
         RON   50            
        ROFF    1.000000E+12 
         VON     .5          
        VOFF     .45         


               X_U3.XA3.XU5.S_VSWITCH_1 
         RON   50            
        ROFF    1.000000E+12 
         VON     .7          
        VOFF     .6          


               X_U3.XA3.XU5.S_VSWITCH_2 
         RON   50            
        ROFF    1.000000E+12 
         VON     .5          
        VOFF     .45         


Starting pseudo-transient algorithm.

**** 10/09/25 10:49:29 ****** PSpice 17.2.0 (March 2016) ****** ID# 0 ********

 ** Profile: "SCHEMATIC1-Prueba"  [ C:\Users\Ronal\Downloads\Proyecto Diseño\Simulaciones\Sensado\prueba_project-pspicefiles\schemati


 ****     INITIAL TRANSIENT SOLUTION       TEMPERATURE =   27.000 DEG C


******************************************************************************



 NODE   VOLTAGE     NODE   VOLTAGE     NODE   VOLTAGE     NODE   VOLTAGE


(  VCC)    3.3000  (  VEE)   -3.3000  (AIN0N)    1.6500  (AIN0P)    1.6501      

(AIN1N)    1.6500  (AIN1P)    1.6500  (N14416) 11.10E-06 (N14420) 1.099E-06     

(N14454)-349.9E-15 (N16616)    0.0000 (N16620)-136.2E-09 (N16624)-272.3E-09     

(N16628)-408.5E-09 (N21353)    1.6500 (N21387)    1.6501 (N31339)    1.6500     

(N34738)    1.6500 (N34756)     .8250 (N35257)     .8250 (N47022) 3.223E-06     

(X_U3.13) 103.0E-18                   (X_U3.14)   -3.3000                       

(X_U3.15)   -3.3000                   (X_U3.16)    3.3000                       

(X_U3.17)    3.3000                   (X_U3.MID) 103.0E-18                      

(X_U4.MID)-88.49E-18                  (X_U4.V11)-21.81E-09                      

(X_U4.V12)-21.81E-09                  (X_U5.MID)-78.70E-18                      

(X_U5.V11)-21.81E-09                  (X_U5.V12)-21.81E-09                      

(X_U7.MID)-27.64E-18                  (X_U7.V11)-21.81E-09                      

(X_U7.V12)-21.81E-09                  (X_U4.ESDN)    1.6500                     

(X_U4.ESDP)    1.6500                 (X_U4.VCLP)    1.7440                     

(X_U5.ESDN)     .8250                 (X_U5.ESDP)     .8250                     

(X_U5.VCLP)    1.7402                 (X_U7.ESDN) 3.223E-06                     

(X_U7.ESDP)-408.5E-09                 (X_U7.VCLP)    -.0573                     

(X_U4.CLAMP)    1.7427                (X_U4.VCC_B)    3.3000                    

(X_U4.VEE_B)   -3.3000                (X_U4.VIMON)     .0880                    

(X_U5.CLAMP)    1.7389                (X_U5.VCC_B)    3.3000                    

(X_U5.VEE_B)   -3.3000                (X_U5.VIMON)     .0825                    

(X_U7.CLAMP)    -.0572                (X_U7.VCC_B)    3.3000                    

(X_U7.VEE_B)   -3.3000                (X_U7.VIMON)    -.0825                    

(X_U3.IN+_10) 4.500E-06               (X_U3.IN+_12)-5.500E-06                   

(X_U3.IN+_20)     .8250               (X_U3.IN-_19)     .8250                   

(X_U3.OUT_11) 78.02E-06               (X_U3.OUT_18)-72.82E-06                   

(X_U3.XA1.34) 1.099E-06               (X_U3.XA1.35)-5.500E-06                   

(X_U3.XA1.36)   -3.2700               (X_U3.XA1.37)    3.2700                   

(X_U3.XA1.43)    -.0055               (X_U3.XA1.44)-72.82E-06                   

(X_U3.XA1.47) 103.0E-18               (X_U3.XA1.48) 103.0E-18                   

(X_U3.XA1.49)-5.500E-06               (X_U3.XA1.50)   48.0000                   

(X_U3.XA1.51)  -69.0000               (X_U3.XA1.52)    -.0039                   

(X_U3.XA1.53) 103.0E-18               (X_U3.XA1.54) 103.0E-18                   

(X_U3.XA1.55) 103.0E-18               (X_U3.XA1.56) 103.0E-18                   

(X_U3.XA1.57) 103.0E-18               (X_U3.XA1.58) 103.0E-18                   

(X_U3.XA1.59) 103.0E-18               (X_U3.XA1.60) 1.097E-06                   

(X_U3.XA1.61)   -3.4000               (X_U3.XA1.62)    3.4000                   

(X_U3.XA1.63) 1.097E-06               (X_U3.XA1.64)-5.500E-06                   

(X_U3.XA2.34) 11.10E-06               (X_U3.XA2.35) 4.500E-06                   

(X_U3.XA2.36)   -3.2700               (X_U3.XA2.37)    3.2700                   

(X_U3.XA2.43)    -.0055               (X_U3.XA2.44) 78.02E-06                   

(X_U3.XA2.47) 103.0E-18               (X_U3.XA2.48) 103.0E-18                   

(X_U3.XA2.49) 4.500E-06               (X_U3.XA2.50)   48.0000                   

(X_U3.XA2.51)  -69.0000               (X_U3.XA2.52)    -.0037                   

(X_U3.XA2.53) 103.0E-18               (X_U3.XA2.54) 103.0E-18                   

(X_U3.XA2.55) 103.0E-18               (X_U3.XA2.56) 103.0E-18                   

(X_U3.XA2.57) 103.0E-18               (X_U3.XA2.58) 103.0E-18                   

(X_U3.XA2.59) 103.0E-18               (X_U3.XA2.60) 11.10E-06                   

(X_U3.XA2.61)   -3.4000               (X_U3.XA2.62)    3.4000                   

(X_U3.XA2.63) 11.10E-06               (X_U3.XA2.64) 4.500E-06                   

(X_U4.VOUT_S)    1.6500               (X_U4.VSENSE)    1.7427                   

(X_U5.VOUT_S)    1.6500               (X_U5.VSENSE)    1.7389                   

(X_U7.VOUT_S) 3.223E-06               (X_U7.VSENSE)    -.0572                   

(X_U3.XA3.206)    1.6867              (X_U3.XA3.207)     .0055                  

(X_U3.XA3.208)    1.6501              (X_U3.XA3.211)     .8250                  

(X_U3.XA3.212)-7.998E-09              (X_U3.XA3.213)-7.998E-09                  

(X_U3.XA3.214)-7.998E-09              (X_U3.XA3.215)-7.998E-09                  

(X_U3.XA3.216)    9.6767              (X_U3.XA3.217)    9.6767                  

(X_U3.XA3.218)   -6.3033              (X_U3.XA3.219)   -6.3033                  

(X_U3.XA3.220)    5.0000              (X_U3.XA3.221)  -11.0000                  

(X_U3.XA3.222) 103.0E-18              (X_U3.XA3.223) 103.0E-18                  

(X_U3.XA3.224)    9.6767              (X_U3.XA3.225)   -6.3033                  

(X_U3.XA3.226)   48.0000              (X_U3.XA3.227)  -69.0000                  

(X_U3.XA3.228)    1.6867              (X_U3.XA3.229) 103.0E-18                  

(X_U3.XA3.230) 103.0E-18              (X_U3.XA3.231) 103.0E-18                  

(X_U3.XA3.232) 103.0E-18              (X_U3.XA3.233) 103.0E-18                  

(X_U3.XA3.234) 103.0E-18              (X_U3.XA3.235)    3.2695                  

(X_U3.XA3.236)   -3.2700              (X_U3.XA3.237)    3.2695                  

(X_U3.XA3.238)   -3.2700              (X_U3.XA3.239) 103.0E-18                  

(X_U3.XA3.240) 103.0E-18              (X_U3.XA3.241) 103.0E-18                  

(X_U3.XA3.242) 103.0E-18              (X_U3.XA3.243) 103.0E-18                  

(X_U3.XA3.244)     .8250              (X_U3.XA3.245)   -3.4000                  

(X_U3.XA3.246)    3.4000              (X_U3.XA3.247)     .8250                  

(X_U3.XA3.248)     .8250              (X_U3.XA3.249)     .8250                  

(X_U4.VCC_CLP)    3.2523              (X_U4.VEE_CLP)   -3.2592                  

(X_U4.X_U36.3)    0.0000              (X_U4.X_U36.5)    0.0000                  

(X_U4.X_U37.3)    0.0000              (X_U4.X_U37.5)    0.0000                  

(X_U4.X_U38.5)    0.0000              (X_U5.VCC_CLP)    3.2528                  

(X_U5.VEE_CLP)   -3.2592              (X_U5.X_U36.3)    0.0000                  

(X_U5.X_U36.5)    0.0000              (X_U5.X_U37.3)    0.0000                  

(X_U5.X_U37.5)    0.0000              (X_U5.X_U38.5)    0.0000                  

(X_U7.VCC_CLP)    3.2600              (X_U7.VEE_CLP)   -3.2585                  

(X_U7.X_U36.3)    0.0000              (X_U7.X_U36.5)    0.0000                  

(X_U7.X_U37.3)    0.0000              (X_U7.X_U37.5)    0.0000                  

(X_U7.X_U38.5)    0.0000              (X_U3.XA3.VCLP)    1.6867                 

(X_U4.CL_CLAMP)    1.7440             (X_U4.N2986935)    1.6500                 

(X_U4.N2986947) 521.8E-09             (X_U4.N2986949)    1.6500                 

(X_U4.N2986957)    1.6500             (X_U4.N2986973)-3.301E-06                 

(X_U4.N2986975) 3.301E-06             (X_U4.N2986977)    1.6500                 

(X_U4.N2986981)    1.6500             (X_U4.N2987013)    1.6500                 

(X_U4.N2987017)    3.4000             (X_U4.N2987029)   -3.4000                 

(X_U4.N2987037)    1.6500             (X_U4.N2987051)    1.6500                 

(X_U4.N2987061) 51.00E-06             (X_U4.N2987123)-88.49E-18                 

(X_U4.N2987135)-88.49E-18             (X_U4.N2987157)-88.49E-18                 

(X_U4.N2987159)-88.49E-18             (X_U4.N2987201)    5.0000                 

(X_U4.N2987203)-88.49E-18             (X_U4.N2987205)-88.49E-18                 

(X_U4.N2987225)-88.49E-18             (X_U4.N2987231)-88.49E-18                 

(X_U4.N2987243)   -9.9765             (X_U4.N2987295)  169.0000                 

(X_U4.N2987299)-88.49E-18             (X_U4.N2987301)-88.49E-18                 

(X_U4.N2987319)-88.49E-18             (X_U4.N2987325)-88.49E-18                 

(X_U4.N2987337) -189.0000             (X_U4.N2987363)    1.7427                 

(X_U4.N2987391)    3.2523             (X_U4.N2987395)   -3.2592                 

(X_U4.N2987423)   -3.2592             (X_U4.N2987427)    3.2523                 

(X_U4.N2987487)-21.81E-09             (X_U4.N2987493)-21.81E-09                 

(X_U4.N2987499)-88.49E-18             (X_U4.N2987541)     .0880                 

(X_U4.N2987553)    1.6500             (X_U4.N2987623)    1.6500                 

(X_U4.N2987655)   -9.1560             (X_U4.N2987675)   12.6440                 

(X_U4.N2987683)   -9.1560             (X_U4.N2987687)   -9.1560                 

(X_U4.N2987711)   12.6440             (X_U4.N2987719)   12.6440                 

(X_U4.N2987763)-88.49E-18             (X_U4.N2987785)    3.3000                 

(X_U4.N2987801)   -3.3000             (X_U4.N3108913)    1.7427                 

(X_U4.N3108917)    1.7427             (X_U4.N3108949)    1.7427                 

(X_U4.N3109045)    1.7440             (X_U4.N3116457)    1.7440                 

(X_U4.N3116503)   35.0920             (X_U4.N3116515)     .4632                 

(X_U4.N3116655)   51.8890             (X_U4.N3116665) 657.3E-06                 

(X_U4.N3116675)   51.8950             (X_U4.N3116685)   51.8950                 

(X_U4.N3116957)   51.8880             (X_U4.N3126023)     .1535                 

(X_U4.N3126031) 521.8E-09             (X_U4.N3128929)    -.3300                 

(X_U4.N3128939)-3.300E-06             (X_U4.N3130349) 3.299E-06                 

(X_U4.N3130359)     .0028             (X_U4.N3202153)   51.8940                 

(X_U4.N3236810) 3.301E-06             (X_U4.N3236820)     .0028                 

(X_U4.N3330020)    2.3369             (X_U4.N3330030)    1.7432                 

(X_U4.N3330557)    5.0462             (X_U4.N3330567)    1.7433                 

(X_U4.N3331119)    1.8583             (X_U4.N3342059)   39.7650                 

(X_U4.N3344856)   51.8940             (X_U4.N3344868)   51.8940                 

(X_U4.N3355872) 521.8E-09             (X_U4.N3355880) 260.9E-09                 

(X_U4.N3369111)-22.00E-06             (X_U4.N3369121)-3.301E-06                 

(X_U5.CL_CLAMP)    1.7402             (X_U5.N2986935)     .8250                 

(X_U5.N2986947) 260.9E-09             (X_U5.N2986949)     .8250                 

(X_U5.N2986957)     .8250             (X_U5.N2986973)-3.301E-06                 

(X_U5.N2986975) 3.301E-06             (X_U5.N2986977)     .8250                 

(X_U5.N2986981)     .8250             (X_U5.N2987013)     .8250                 

(X_U5.N2987017)    3.4000             (X_U5.N2987029)   -3.4000                 

(X_U5.N2987037)     .8250             (X_U5.N2987051)     .8250                 

(X_U5.N2987061) 50.81E-06             (X_U5.N2987123)-78.70E-18                 

(X_U5.N2987135)-78.70E-18             (X_U5.N2987157)-78.70E-18                 

(X_U5.N2987159)-78.70E-18             (X_U5.N2987201)    5.0000                 

(X_U5.N2987203)-78.70E-18             (X_U5.N2987205)-78.70E-18                 

(X_U5.N2987225)-78.70E-18             (X_U5.N2987231)-78.70E-18                 

(X_U5.N2987243)   -9.9765             (X_U5.N2987295)  169.0000                 

(X_U5.N2987299)-78.70E-18             (X_U5.N2987301)-78.70E-18                 

(X_U5.N2987319)-78.70E-18             (X_U5.N2987325)-78.70E-18                 

(X_U5.N2987337) -189.0000             (X_U5.N2987363)    1.7389                 

(X_U5.N2987391)    3.2528             (X_U5.N2987395)   -3.2592                 

(X_U5.N2987423)   -3.2592             (X_U5.N2987427)    3.2528                 

(X_U5.N2987487)-21.81E-09             (X_U5.N2987493)-21.81E-09                 

(X_U5.N2987499)-78.70E-18             (X_U5.N2987541)     .0825                 

(X_U5.N2987553)    1.6500             (X_U5.N2987623)    1.6500                 

(X_U5.N2987655)   -9.1598             (X_U5.N2987675)   12.6400                 

(X_U5.N2987683)   -9.1598             (X_U5.N2987687)   -9.1598                 

(X_U5.N2987711)   12.6400             (X_U5.N2987719)   12.6400                 

(X_U5.N2987763)-78.70E-18             (X_U5.N2987785)    3.3000                 

(X_U5.N2987801)   -3.3000             (X_U5.N3108913)    1.7389                 

(X_U5.N3108917)    1.7389             (X_U5.N3108949)    1.7389                 

(X_U5.N3109045)    1.7402             (X_U5.N3116457)    1.7402                 

(X_U5.N3116503)   33.6660             (X_U5.N3116515)     .4444                 

(X_U5.N3116655)   49.7800             (X_U5.N3116665) 630.6E-06                 

(X_U5.N3116675)   49.7870             (X_U5.N3116685)   49.7870                 

(X_U5.N3116957)   49.7800             (X_U5.N3126023)     .0767                 

(X_U5.N3126031) 260.9E-09             (X_U5.N3128929)    -.3300                 

(X_U5.N3128939)-3.300E-06             (X_U5.N3130349) 3.299E-06                 

(X_U5.N3130359)     .0028             (X_U5.N3202153)   49.7860                 

(X_U5.N3236810) 3.301E-06             (X_U5.N3236820)     .0028                 

(X_U5.N3330020)    2.3318             (X_U5.N3330030)    1.7394                 

(X_U5.N3330557)    5.0352             (X_U5.N3330567)    1.7395                 

(X_U5.N3331119)    1.8543             (X_U5.N3342059)   38.1500                 

(X_U5.N3344856)   49.7850             (X_U5.N3344868)   49.7850                 

(X_U5.N3355872) 260.9E-09             (X_U5.N3355880) 130.4E-09                 

(X_U5.N3369111)-22.00E-06             (X_U5.N3369121)-3.301E-06                 

(X_U7.CL_CLAMP)    -.0573             (X_U7.N2986935)-408.5E-09                 

(X_U7.N2986947)-129.2E-15             (X_U7.N2986949)-3.408E-06                 

(X_U7.N2986957)-3.408E-06             (X_U7.N2986973)-3.301E-06                 

(X_U7.N2986975) 3.301E-06             (X_U7.N2986977)-3.408E-06                 

(X_U7.N2986981) 3.193E-06             (X_U7.N2987013) 3.223E-06                 

(X_U7.N2987017)    3.4000             (X_U7.N2987029)   -3.4000                 

(X_U7.N2987037) 3.193E-06             (X_U7.N2987051) 3.193E-06                 

(X_U7.N2987061)-2.984E-06             (X_U7.N2987123)-27.64E-18                 

(X_U7.N2987135)-27.64E-18             (X_U7.N2987157)-27.64E-18                 

(X_U7.N2987159)-27.64E-18             (X_U7.N2987201)    5.0000                 

(X_U7.N2987203)-27.64E-18             (X_U7.N2987205)-27.64E-18                 

(X_U7.N2987225)-27.64E-18             (X_U7.N2987231)-27.64E-18                 

(X_U7.N2987243)   -9.9765             (X_U7.N2987295)  169.0000                 

(X_U7.N2987299)-27.64E-18             (X_U7.N2987301)-27.64E-18                 

(X_U7.N2987319)-27.64E-18             (X_U7.N2987325)-27.64E-18                 

(X_U7.N2987337) -189.0000             (X_U7.N2987363)    -.0572                 

(X_U7.N2987391)    3.2600             (X_U7.N2987395)   -3.2585                 

(X_U7.N2987423)   -3.2585             (X_U7.N2987427)    3.2600                 

(X_U7.N2987487)-21.81E-09             (X_U7.N2987493)-21.81E-09                 

(X_U7.N2987499)-27.64E-18             (X_U7.N2987541)    -.0825                 

(X_U7.N2987553) 3.223E-06             (X_U7.N2987623) 3.223E-06                 

(X_U7.N2987655)  -10.9570             (X_U7.N2987675)   10.8430                 

(X_U7.N2987683)  -10.9570             (X_U7.N2987687)  -10.9570                 

(X_U7.N2987711)   10.8430             (X_U7.N2987719)   10.8430                 

(X_U7.N2987763)-27.64E-18             (X_U7.N2987785)    3.3000                 

(X_U7.N2987801)   -3.3000             (X_U7.N3108913)    -.0572                 

(X_U7.N3108917)    -.0572             (X_U7.N3108949)    -.0572                 

(X_U7.N3109045)    -.0573             (X_U7.N3116457)    -.0573                 

(X_U7.N3116503)  -21.3910             (X_U7.N3116515)    -.2824                 

(X_U7.N3116655)  -31.6300             (X_U7.N3116665)-400.7E-06                 

(X_U7.N3116675)  -31.6340             (X_U7.N3116685)  -31.6340                 

(X_U7.N3116957)  -31.6300             (X_U7.N3126023)-37.99E-09                 

(X_U7.N3126031)-129.2E-15             (X_U7.N3128929)    -.3300                 

(X_U7.N3128939)-3.300E-06             (X_U7.N3130349) 3.299E-06                 

(X_U7.N3130359)     .0028             (X_U7.N3202153)  -31.6330                 

(X_U7.N3236810) 3.301E-06             (X_U7.N3236820)     .0028                 

(X_U7.N3330020)    -.0767             (X_U7.N3330030)    -.0572                 

(X_U7.N3330557)    -.1657             (X_U7.N3330567)    -.0573                 

(X_U7.N3331119)    -.0610             (X_U7.N3342059)  -24.2400                 

(X_U7.N3344856)  -31.6330             (X_U7.N3344868)  -31.6330                 

(X_U7.N3355872)-129.2E-15             (X_U7.N3355880)-64.61E-15                 

(X_U7.N3369111)-22.00E-06             (X_U7.N3369121)-3.301E-06                 

(X_U3.XA1.IN_32)    3.3000            (X_U3.XA1.IN_33)   -3.3000                

(X_U3.XA2.IN_32)    3.3000            (X_U3.XA2.IN_33)   -3.3000                

(X_U4.N32898091)   51.8950            (X_U4.N33449121)   51.8940                

(X_U5.N32898091)   49.7870            (X_U5.N33449121)   49.7850                

(X_U7.N32898091)  -31.6340            (X_U7.N33449121)  -31.6330                

(X_U3.XA1.OUT_45)-3.301E-06           (X_U3.XA1.OUT_46) 3.297E-06               

(X_U3.XA1.XE_N.5)    0.0000           (X_U3.XA1.XU1.67)   -2.1103               

(X_U3.XA1.XU1.68)-26.73E-06           (X_U3.XA1.XU1.69)   -2.1105               

(X_U3.XA1.XU1.70)   -2.1105           (X_U3.XA1.XU1.71)   -2.1105               

(X_U3.XA1.XU1.72)   -1.6111           (X_U3.XA1.XU1.73)   -2.1024               

(X_U3.XA1.XU1.74)   -2.1025           (X_U3.XA1.XU1.75)   -2.1025               

(X_U3.XA1.XU1.76)   -2.1025           (X_U3.XA1.XU1.77)   -2.1103               

(X_U3.XA1.XU2.82) 26.37E-09           (X_U3.XA1.XU2.83) 3.297E-06               

(X_U3.XA1.XU2.84)     .0110           (X_U3.XA1.XU2.85) 3.297E-06               

(X_U3.XA1.XU3.78)-471.5E-09           (X_U3.XA1.XU3.79)-3.300E-06               

(X_U3.XA1.XU3.80)    -.5775           (X_U3.XA1.XU3.81)-3.300E-06               

(X_U3.XA2.OUT_45)-3.301E-06           (X_U3.XA2.OUT_46) 3.297E-06               

(X_U3.XA2.XE_N.5)    0.0000           (X_U3.XA2.XU1.67)   -2.1071               

(X_U3.XA2.XU1.68)-26.69E-06           (X_U3.XA2.XU1.69)   -2.1073               

(X_U3.XA2.XU1.70)   -2.1073           (X_U3.XA2.XU1.71)   -2.1073               

(X_U3.XA2.XU1.72)   -1.6086           (X_U3.XA2.XU1.73)   -2.0992               

(X_U3.XA2.XU1.74)   -2.0993           (X_U3.XA2.XU1.75)   -2.0993               

(X_U3.XA2.XU1.76)   -2.0993           (X_U3.XA2.XU1.77)   -2.1071               

(X_U3.XA2.XU2.82) 26.37E-09           (X_U3.XA2.XU2.83) 3.297E-06               

(X_U3.XA2.XU2.84)     .0110           (X_U3.XA2.XU2.85) 3.297E-06               

(X_U3.XA2.XU3.78)-471.5E-09           (X_U3.XA2.XU3.79)-3.300E-06               

(X_U3.XA2.XU3.80)    -.5775           (X_U3.XA2.XU3.81)-3.300E-06               

(X_U3.XA3.IN_187)   -3.3000           (X_U3.XA3.IN_188)    3.3000               

(X_U3.XA3.XE_N.5)    0.0000           (X_U3.XA3.XU1.67)   20.2600               

(X_U3.XA3.XU1.68) 256.7E-06           (X_U3.XA3.XU1.69)   20.2620               

(X_U3.XA3.XU1.70)   20.2620           (X_U3.XA3.XU1.71)   20.2620               

(X_U3.XA3.XU1.72)   15.4670           (X_U3.XA3.XU1.73)   20.1840               

(X_U3.XA3.XU1.74)   20.1850           (X_U3.XA3.XU1.75)   20.1850               

(X_U3.XA3.XU1.76)   20.1850           (X_U3.XA3.XU1.77)   20.2600               

(X_U3.XA3.XU2.82) 26.37E-09           (X_U3.XA3.XU2.83) 3.297E-06               

(X_U3.XA3.XU2.84)     .0110           (X_U3.XA3.XU2.85) 3.297E-06               

(X_U3.XA3.XU3.78)-471.5E-09           (X_U3.XA3.XU3.79)-3.300E-06               

(X_U3.XA3.XU3.80)    -.5775           (X_U3.XA3.XU3.81)-3.300E-06               

(X_U4.CLAW_CLAMP)    1.7440           (X_U5.CLAW_CLAMP)    1.7402               

(X_U7.CLAW_CLAMP)    -.0573           (X_U3.XA1.XI_NN.3)    0.0000              

(X_U3.XA1.XI_NN.5)    0.0000          (X_U3.XA1.XI_NP.3)    0.0000              

(X_U3.XA1.XI_NP.5)    0.0000          (X_U3.XA2.XI_NN.3)    0.0000              

(X_U3.XA2.XI_NN.5)    0.0000          (X_U3.XA2.XI_NP.3)    0.0000              

(X_U3.XA2.XI_NP.5)    0.0000          (X_U3.XA3.OUT_209)-3.301E-06              

(X_U3.XA3.OUT_210) 3.297E-06          (X_U3.XA3.VCC_CLP)    3.2695              

(X_U3.XA3.VEE_CLP)   -3.2700          (X_U3.XA3.XI_NN.3)    0.0000              

(X_U3.XA3.XI_NN.5)    0.0000          (X_U3.XA3.XI_NP.3)    0.0000              

(X_U3.XA3.XI_NP.5)    0.0000          (X_U3.XA1.CLAMP_28)    -.0039             

(X_U3.XA1.CLAWN_21) 103.0E-18         (X_U3.XA1.CLAWP_22) 103.0E-18             

(X_U3.XA1.SW_OL_29) 103.0E-18         (X_U3.XA1.VIMON_24)    -.0055             

(X_U3.XA2.CLAMP_28)    -.0037         (X_U3.XA2.CLAWN_21) 103.0E-18             

(X_U3.XA2.CLAWP_22) 103.0E-18         (X_U3.XA2.SW_OL_29) 103.0E-18             

(X_U3.XA2.VIMON_24)    -.0055         (X_U3.XA1.VOUT_S_23)-72.82E-06            

(X_U3.XA1.VSENSE_27)    -.0039        (X_U3.XA1.ZO_OUT_40)-72.82E-06            

(X_U3.XA2.VOUT_S_23) 78.02E-06        (X_U3.XA2.VSENSE_27)    -.0037            

(X_U3.XA2.ZO_OUT_40) 78.02E-06        (X_U3.XA3.CLAMP_195)    1.6867            

(X_U3.XA3.SW_OL_196) 103.0E-18        (X_U3.XA3.VIMON_192)     .0055            

(X_U4.SW_OL_OPAx333)-88.49E-18        (X_U5.SW_OL_OPAx333)-78.70E-18            

(X_U7.SW_OL_OPAx333)-27.64E-18        (X_U3.XA1.AOL_INN_41) 1.099E-06           

(X_U3.XA1.AOL_INP_42) 1.097E-06       (X_U3.XA2.AOL_INN_41) 11.10E-06           

(X_U3.XA2.AOL_INP_42) 11.10E-06       (X_U3.XA3.VOUT_S_191)    1.6501           

(X_U3.XA3.VSENSE_194)    1.6867       (X_U3.XA3.ZO_OUT_203)    1.6501           

(X_U3.XA1.CL_CLAMP_25)    -.0039      (X_U3.XA1.XU1.4_A0_66)-175.1E-09          

(X_U3.XA1.XU1.OUT2_65)    -.0039      (X_U3.XA1.ZO_CLEFT_38)   -1.4216          

(X_U3.XA2.CL_CLAMP_25)    -.0037      (X_U3.XA2.XU1.4_A0_66)-170.5E-09          

(X_U3.XA2.XU1.OUT2_65)    -.0037      (X_U3.XA2.ZO_CLEFT_38)   -1.4195          

(X_U3.XA3.AOL_INN_204)     .8250      (X_U3.XA3.AOL_INP_205)     .8250          

(X_U3.XA3.XU1.4_A0_66) 49.12E-06      (X_U3.XA3.XU1.OUT2_65)    1.6867          

(X_U3.XA1.ZO_CRIGHT_39)    -.0188     (X_U3.XA2.ZO_CRIGHT_39)    -.0187         

(X_U3.XA3.CL_CLAMP_189)    1.6867     (X_U3.XA3.ZO_CLEFT_201)   13.6480         

(X_U3.XA1.CLAW_CLAMP_26)    -.0039    (X_U3.XA2.CLAW_CLAMP_26)    -.0037        

(X_U3.XA3.ZO_CRIGHT_202)     .1802    (X_U3.XA1.ESD_INA333N_30) 1.099E-06       

(X_U3.XA1.ESD_INA333P_31)-5.500E-06   (X_U3.XA2.ESD_INA333N_30) 11.10E-06       

(X_U3.XA2.ESD_INA333P_31) 4.500E-06   (X_U3.XA3.CLAW_CLAMP_193)    1.6867       

(X_U3.XA3.ESD_INA333N_197)     .8250  (X_U3.XA3.ESD_INA333P_198)     .8250  




    VOLTAGE SOURCE CURRENTS
    NAME         CURRENT

    V_V1        -4.420E-04
    V_V2        -1.945E-04
    V_V5        -4.418E-13
    X_U4.V_VCM_MAX  -3.400E-12
    X_U4.V_VCM_MIN   3.401E-12
    X_U4.V_V_GRN   1.890E-10
    X_U4.V_V_GRP  -1.690E-10
    X_U4.V_V_ISCN   9.977E-12
    X_U4.V_V_ISCP  -5.000E-12
    X_U4.V_V_ORN   0.000E+00
    X_U4.V_V_ORP   0.000E+00
    X_U5.V_VCM_MAX  -3.400E-12
    X_U5.V_VCM_MIN   3.401E-12
    X_U5.V_V_GRN   1.890E-10
    X_U5.V_V_GRP  -1.690E-10
    X_U5.V_V_ISCN   9.977E-12
    X_U5.V_V_ISCP  -5.000E-12
    X_U5.V_V_ORN   0.000E+00
    X_U5.V_V_ORP   0.000E+00
    X_U7.V_VCM_MAX  -3.400E-12
    X_U7.V_VCM_MIN   3.401E-12
    X_U7.V_V_GRN   1.890E-10
    X_U7.V_V_GRP  -1.690E-10
    X_U7.V_V_ISCN   9.977E-12
    X_U7.V_V_ISCP  -5.000E-12
    X_U7.V_V_ORN   0.000E+00
    X_U7.V_V_ORP   0.000E+00
    X_U3.XA1.V_GRN   6.900E-11
    X_U3.XA1.V_GRP  -4.800E-11
    X_U3.XA1.V4  -5.502E-06
    X_U3.XA1.VCLAWN   3.271E-12
    X_U3.XA1.VCLAWP  -3.271E-12
    X_U3.XA1.VCM_MAX  -3.400E-12
    X_U3.XA1.VCM_MIN   3.400E-12
    X_U3.XA2.V_GRN   6.900E-11
    X_U3.XA2.V_GRP  -4.800E-11
    X_U3.XA2.V4  -5.498E-06
    X_U3.XA2.VCLAWN   3.271E-12
    X_U3.XA2.VCLAWP  -3.271E-12
    X_U3.XA2.VCM_MAX  -3.400E-12
    X_U3.XA2.VCM_MIN   3.400E-12
    X_U3.XA3.V_GRN   6.900E-11
    X_U3.XA3.V_GRP  -4.800E-11
    X_U3.XA3.V_ISCN   1.100E-11
    X_U3.XA3.V_ISCP  -5.000E-12
    X_U3.XA3.V_ORN   0.000E+00
    X_U3.XA3.V_ORP   0.000E+00
    X_U3.XA3.V4   5.501E-06
    X_U3.XA3.V11   7.998E-09
    X_U3.XA3.V12  -7.998E-09
    X_U3.XA3.VCM_MAX  -3.401E-12
    X_U3.XA3.VCM_MIN   3.401E-12
    X_U4.X_H1.VH_H1   8.800E-05
    X_U4.X_H2.VH_H2  -2.181E-08
    X_U4.X_H3.VH_H3   2.181E-08
    X_U5.X_H1.VH_H1   8.250E-05
    X_U5.X_H2.VH_H2  -2.181E-08
    X_U5.X_H3.VH_H3   2.181E-08
    X_U7.X_H1.VH_H1  -8.250E-05
    X_U7.X_H2.VH_H2  -2.181E-08
    X_U7.X_H3.VH_H3   2.181E-08

    TOTAL POWER DISSIPATION   2.10E-03  WATTS



          JOB CONCLUDED

**** 10/09/25 10:49:29 ****** PSpice 17.2.0 (March 2016) ****** ID# 0 ********

 ** Profile: "SCHEMATIC1-Prueba"  [ C:\Users\Ronal\Downloads\Proyecto Diseño\Simulaciones\Sensado\prueba_project-pspicefiles\schemati


 ****     JOB STATISTICS SUMMARY


******************************************************************************



  Total job time (using Solver 1)   =        4.61
